%chk=D:\soft\g16w\aminoacids\arg.chk
# hf/3-21g geom=connectivity

Title Card Required

0 2
 N                 -1.12367190   -1.66900490   -0.23830695
 H                 -0.12411190   -1.69867090   -0.23830695
 C                 -1.81062590   -0.39319290   -0.23830695
 H                 -2.43545890   -0.31638990   -1.12812995
 C                 -2.69724890   -0.24707090    0.99383405
 C                 -0.82014690    0.76241810   -0.23830695
 H                 -3.44148390   -1.04339290    1.00306605
 H                 -2.08447590   -0.31271890    1.89288905
 C                 -3.40084390    1.10539610    0.95626705
 O                  0.41677910    0.53093310   -0.23830695
 H                 -2.65720590    1.90228110    0.94748405
 H                 -4.01421390    1.17160810    0.05766105
 C                 -4.28746790    1.25151910    2.18840905
 H                 -5.03170290    0.45519710    2.19764005
 H                 -3.67469390    1.18587010    3.08746305
 N                 -4.98797990    2.55523610    2.18617205
 H                 -4.82459490    3.18880010    1.41675605
 C                 -5.82281590    2.93063410    3.15106805
 N                 -6.08842790    2.15162310    4.19581305
 N                 -6.39880790    4.12505810    3.04867805
 H                 -5.64932890    1.24514110    4.27052605
 H                 -6.72801090    2.47010710    4.90967705
 H                 -6.19493490    4.71417010    2.25401905
 H                 -7.03744090    4.43750110    3.76605305
 ?s                -1.23534790    1.94144710   -0.23830695
 ?s                -1.78051190   -2.73251890   -0.23830695

 1 2 1.0 3 1.0 26 1.0
 2
 3 4 1.0 5 1.0 6 1.0
 4
 5 7 1.0 8 1.0 9 1.0
 6 10 2.0 25 1.0
 7
 8
 9 11 1.0 12 1.0 13 1.0
 10
 11
 12
 13 14 1.0 15 1.0 16 1.0
 14
 15
 16 17 1.0 18 1.5
 17
 18 19 1.5 20 1.5
 19 21 1.0 22 1.0
 20 23 1.0 24 1.0
 21
 22
 23
 24
 25
 26

