%chk=D:\soft\g16w\aminoacids\asn.chk
# hf/3-21g geom=connectivity

Title Card Required

0 1
 N                 -0.81284356   -1.58324640   -0.66991911
 H                  0.18671644   -1.61291240   -0.66991911
 C                 -1.49979756   -0.30743440   -0.66991911
 H                 -2.12463056   -0.23063140   -1.55974211
 C                 -2.38642056   -0.16131240    0.56222189
 C                 -0.50931856    0.84817660   -0.66991911
 H                 -3.13065556   -0.95763440    0.57145389
 H                 -1.77364756   -0.22696040    1.46127689
 C                 -3.10798256    1.17877460    0.56222189
 O                  0.72760744    0.61669160   -0.66991911
 O                 -2.93751456    1.97900060   -0.35484911
 N                 -3.91688456    1.42212860    1.59599289
 H                 -4.41978756    2.29665960    1.64481989
 H                 -4.02225556    0.73059360    2.32453789
 ?s                -0.92451956    2.02720560   -0.66991911
 ?s                -1.46968356   -2.64676040   -0.66991911

 1 2 1.0 3 1.0 16 1.0
 2
 3 4 1.0 5 1.0 6 1.0
 4
 5 7 1.0 8 1.0 9 1.0
 6 10 2.0 15 1.0
 7
 8
 9 11 2.0 12 1.5
 10
 11
 12 13 1.0 14 1.0
 13
 14
 15
 16

