%chk=D:\soft\g16w\aminoacids\gln.chk
# hf/3-21g geom=connectivity

Title Card Required

0 1
 N                 -1.40637622   -1.46319619    0.16013512
 H                 -0.40681622   -1.49286219    0.16013512
 C                 -2.09333022   -0.18738419    0.16013512
 H                 -2.71816322   -0.11058119   -0.72968788
 C                 -2.97995322   -0.04126219    1.39227612
 C                 -1.10285122    0.96822681    0.16013512
 H                 -3.72418822   -0.83758419    1.40150812
 H                 -2.36718022   -0.10691019    2.29133112
 C                 -3.68354822    1.31120481    1.35470912
 O                  0.13407478    0.73674181    0.16013512
 H                 -2.93991022    2.10808981    1.34592612
 H                 -4.29691822    1.37741681    0.45610312
 C                 -4.58035722    1.49623881    2.57043212
 O                 -4.66498522    0.61511881    3.42302012
 N                 -5.25148822    2.64763681    2.64846312
 H                 -5.86074622    2.82118381    3.43509312
 H                 -5.14690522    3.33991481    1.92051112
 ?s                -1.51805222    2.14725581    0.16013512
 ?s                -2.06321622   -2.52671019    0.16013512

 1 2 1.0 3 1.0 19 1.0
 2
 3 4 1.0 5 1.0 6 1.0
 4
 5 7 1.0 8 1.0 9 1.0
 6 10 2.0 18 1.0
 7
 8
 9 11 1.0 12 1.0 13 1.0
 10
 11
 12
 13 14 2.0 15 1.5
 14
 15 16 1.0 17 1.0
 16
 17
 18
 19

