%chk=D:\soft\g16w\aminoacids\glu.chk
# hf/3-21g geom=connectivity

Title Card Required

0 1
 N                  0.50903100   -4.14066699   -0.01536382
 H                  1.50859100   -4.17033299   -0.01536382
 C                 -0.17792300   -2.86485499   -0.01536382
 H                 -0.80275600   -2.78805199   -0.90518682
 C                 -1.06454600   -2.71873299    1.21677718
 C                  0.81255600   -1.70924399   -0.01536382
 H                 -1.80878100   -3.51505499    1.22600918
 H                 -0.45177300   -2.78438099    2.11583218
 C                 -1.76122100   -1.37956899    1.17958018
 O                  2.04948200   -1.94072899   -0.01536382
 H                 -1.01758200   -0.58268399    1.17079718
 H                 -2.37459100   -1.31335699    0.28097418
 ?s                 0.39735500   -0.53021499   -0.01536382
 ?s                -0.14780900   -5.20418099   -0.01536382
 C                 -2.65656527   -1.23200933    2.42384092
 O                 -2.38655432   -1.37592604    3.61545490
 O                 -3.93008995   -0.88960350    2.10399228
 H                 -4.47229285   -0.80326837    2.90506850

 1 2 1.0 3 1.0 14 1.0
 2
 3 4 1.0 5 1.0 6 1.0
 4
 5 7 1.0 8 1.0 9 1.0
 6 10 2.0 13 1.0
 7
 8
 9 11 1.0 12 1.0 15 1.0
 10
 11
 12
 13
 14
 15 16 2.0 17 1.0
 16
 17 18 1.0
 18

