%chk=D:\soft\g16w\aminoacids\gly.chk
# hf/3-21g geom=connectivity

Title Card Required

0 1
 N                 -1.63401435   -3.07411219    0.74554961
 H                 -0.63445435   -3.10377819    0.74554961
 C                 -2.32096835   -1.79830019    0.74554961
 C                 -1.31644535   -0.65487619    0.74554961
 H                 -2.94580135   -1.72149719   -0.14427339
 H                 -2.94580135   -1.72149719    1.63537261
 O                 -0.08243935   -0.90145519    0.74554961
 ?s                -1.71721135    0.52913681    0.74554961
 ?s                -2.29085435   -4.13762619    0.74554961

 1 2 1.0 3 1.0 9 1.0
 2
 3 4 1.0 5 1.0 6 1.0
 4 7 2.0 8 1.0
 5
 6
 7
 8
 9

