%chk=D:\soft\g16w\aminoacids\lys.chk
# hf/3-21g geom=connectivity

Title Card Required

0 2
 N                 -2.99571847   -1.40830088    1.39867152
 H                 -1.99615847   -1.43796688    1.39867152
 C                 -3.68267247   -0.13248888    1.39867152
 H                 -4.30750547   -0.05568588    0.50884852
 C                 -4.56929547    0.01363312    2.63081252
 C                 -2.69219347    1.02312212    1.39867152
 H                 -5.31353047   -0.78268888    2.64004452
 H                 -3.95652247   -0.05201488    3.52986752
 C                 -5.27289047    1.36610012    2.59324552
 O                 -1.45526747    0.79163712    1.39867152
 H                 -4.52925247    2.16298512    2.58446252
 H                 -5.88626047    1.43231212    1.69463952
 C                 -6.15951447    1.51222312    3.82538752
 H                 -6.90374947    0.71590112    3.83461852
 H                 -5.54674047    1.44657412    4.72444152
 C                 -6.86310947    2.86469012    3.78782052
 H                 -6.11947047    3.66157512    3.77903752
 H                 -7.47647947    2.93090112    2.88921352
 N                 -7.71775547    3.00554212    4.97552352
 H                 -7.14952547    2.94464712    5.80829352
 H                 -8.18374347    3.90127512    4.95064352
 H                 -8.40716947    2.26747612    4.98362552
 ?s                -3.10739447    2.20215112    1.39867152
 ?s                -3.65255847   -2.47181488    1.39867152

 1 2 1.0 3 1.0 24 1.0
 2
 3 4 1.0 5 1.0 6 1.0
 4
 5 7 1.0 8 1.0 9 1.0
 6 10 2.0 23 1.0
 7
 8
 9 11 1.0 12 1.0 13 1.0
 10
 11
 12
 13 14 1.0 15 1.0 16 1.0
 14
 15
 16 17 1.0 18 1.0 19 1.0
 17
 18
 19 20 1.0 21 1.0 22 1.0
 20
 21
 22
 23
 24

