%chk=D:\soft\g16w\aminoacids\met.chk
# hf/3-21g geom=connectivity

Title Card Required

0 1
 N                 -2.51216315   -1.69114116    1.07965697
 H                 -1.51260315   -1.72080716    1.07965697
 C                 -3.19911715   -0.41532916    1.07965697
 H                 -3.82395015   -0.33852616    0.18983397
 C                 -4.08574015   -0.26920716    2.31179797
 C                 -2.20863815    0.74028184    1.07965697
 H                 -4.82997515   -1.06552916    2.32102997
 H                 -3.47296715   -0.33485516    3.21085297
 C                 -4.78933515    1.08325984    2.27423097
 O                 -0.97171215    0.50879684    1.07965697
 H                 -4.04569715    1.88014484    2.26544797
 H                 -5.40270515    1.14947184    1.37562497
 S                 -5.84636215    1.27186484    3.73135897
 C                 -6.51494315    2.89199784    3.42060197
 H                 -7.05948815    2.88592384    2.47639097
 H                 -7.19285515    3.16698484    4.22863497
 H                 -5.70247915    3.61659784    3.36621397
 ?s                -2.62383915    1.91931084    1.07965697
 ?s                -3.16900315   -2.75465516    1.07965697

 1 2 1.0 3 1.0 19 1.0
 2
 3 4 1.0 5 1.0 6 1.0
 4
 5 7 1.0 8 1.0 9 1.0
 6 10 2.0 18 1.0
 7
 8
 9 11 1.0 12 1.0 13 1.0
 10
 11
 12
 13 14 1.0
 14 15 1.0 16 1.0 17 1.0
 15
 16
 17
 18
 19

