%chk=D:\soft\g16w\aminoacids\phe.chk
# hf/3-21g geom=connectivity

Title Card Required

0 1
 N                 -3.77618888   -1.73563875    1.37719812
 H                 -2.77662888   -1.76530475    1.37719812
 C                 -4.46314288   -0.45982675    1.37719812
 H                 -5.08797588   -0.38302375    0.48737512
 C                 -5.34976588   -0.31370475    2.60933912
 C                 -3.47266388    0.69578425    1.37719812
 H                 -6.09400088   -1.11002675    2.61857112
 H                 -4.73699288   -0.37935275    3.50839412
 C                 -6.10919488    0.98839225    2.69828312
 O                 -2.23573788    0.46429925    1.37719812
 C                 -6.95467788    1.23267025    3.78708312
 C                 -5.96781888    1.95135625    1.69194612
 H                 -7.06474988    0.48293425    4.57058812
 C                 -7.65878488    2.43991225    3.86954812
 C                 -6.67192588    3.15859825    1.77441112
 H                 -5.30954988    1.76116825    0.84423712
 H                 -8.31705388    2.63010025    4.71725712
 C                 -7.51740888    3.40287625    2.86321112
 H                 -6.56185388    3.90833425    0.99090612
 H                 -8.06560588    4.34280125    2.92741512
 ?s                -3.88786488    1.87481225    1.37719812
 ?s                -4.43302888   -2.79915275    1.37719812

 1 2 1.0 3 1.0 22 1.0
 2
 3 4 1.0 5 1.0 6 1.0
 4
 5 7 1.0 8 1.0 9 1.0
 6 10 2.0 21 1.0
 7
 8
 9 11 1.5 12 1.5
 10
 11 13 1.0 14 1.5
 12 15 1.5 16 1.0
 13
 14 17 1.0 18 1.5
 15 18 1.5 19 1.0
 16
 17
 18 20 1.0
 19
 20
 21
 22

