%chk=D:\soft\g16w\aminoacids\pro.chk
# hf/3-21g geom=connectivity

Title Card Required

0 1
 N                 -2.87892752    0.83918614    3.98323424
 C                 -1.42092752    0.83918614    3.98323424
 C                 -3.45273952    2.17190514    3.98323424
 H                 -1.05707852    0.67568014    2.96884824
 H                 -1.05707852    0.04245514    4.63202724
 C                 -1.07840152    2.20307314    4.50523724
 C                 -2.29636652    3.06097314    4.25892724
 H                 -4.07973652    2.29808914    4.86587324
 C                 -4.29669652    2.36167814    2.73095324
 H                 -0.20704352    2.58734714    3.97498324
 H                 -0.85609652    2.13971614    5.57044424
 H                 -2.11641052    3.71104614    3.40270324
 H                 -2.49711252    3.66954014    5.14065724
 O                 -4.40238752    1.42637314    1.89572624
 ?s                -4.88484252    3.44659814    2.53212224
 ?s                -3.56616652   -0.20494186    3.98323424

 1 2 1.0 3 1.0 16 1.0
 2 4 1.0 5 1.0 6 1.0
 3 7 1.0 8 1.0 9 1.0
 4
 5
 6 7 1.0 10 1.0 11 1.0
 7 12 1.0 13 1.0
 8
 9 14 2.0 15 1.0
 10
 11
 12
 13
 14
 15
 16

