%chk=D:\soft\g16w\aminoacids\ser.chk
# hf/3-21g geom=connectivity

Title Card Required

0 1
 N                 -3.03505513    0.44603986    2.67776349
 H                 -2.03549513    0.41637386    2.67776349
 C                 -3.72200913    1.72185186    2.67776349
 H                 -4.34684213    1.79865486    1.78794049
 C                 -4.60863213    1.86797386    3.90990449
 C                 -2.73153013    2.87746286    2.67776349
 H                 -5.35286713    1.07165186    3.91913649
 H                 -3.99585913    1.80232586    4.80895949
 O                 -5.26839713    3.13618886    3.87467849
 O                 -1.49460413    2.64597786    2.67776349
 H                 -5.82653313    3.22817486    4.65032149
 ?s                -3.14673113    4.05649186    2.67776349
 ?s                -3.69189513   -0.61747414    2.67776349

 1 2 1.0 3 1.0 13 1.0
 2
 3 4 1.0 5 1.0 6 1.0
 4
 5 7 1.0 8 1.0 9 1.0
 6 10 2.0 12 1.0
 7
 8
 9 11 1.0
 10
 11
 12
 13

