%chk=D:\soft\g16w\aminoacids\trp.chk
# hf/3-21g geom=connectivity

Title Card Required

0 1
 N                 -4.71769355   -0.36197738    2.56146659
 H                 -3.71813355   -0.39164338    2.56146659
 C                 -5.40464755    0.91383462    2.56146659
 H                 -6.02948055    0.99063762    1.67164359
 C                 -6.29127055    1.05995662    3.79360759
 C                 -4.41416855    2.06944562    2.56146659
 H                 -7.03550555    0.26363462    3.80283959
 H                 -5.67849755    0.99430862    4.69266259
 C                 -7.05069955    2.36205362    3.88255159
 O                 -3.17724255    1.83796062    2.56146659
 C                 -7.89181355    2.74027462    4.85470259
 C                 -7.02787755    3.42730962    2.97301759
 H                 -8.08595355    2.07564262    5.69653059
 N                 -8.36858855    4.04397662    4.51127159
 C                 -7.82403555    4.41246162    3.37823059
 C                 -6.31434455    3.56003562    1.77583259
 H                 -9.02003155    4.59218962    5.05458059
 C                 -8.01266555    5.61179162    2.68107359
 C                 -6.48870455    4.76006362    1.05637659
 H                 -5.64748755    2.78728762    1.39339259
 H                 -8.68342455    6.37351362    3.07851859
 C                 -7.30421255    5.74357162    1.49244959
 H                 -5.94081955    4.88063862    0.12182659
 H                 -7.40260255    6.65131262    0.89711259
 ?s                -4.82935955    3.24847762    2.56147459
 ?s                -5.37453355   -1.42549038    2.56146659

 1 2 1.0 3 1.0 26 1.0
 2
 3 4 1.0 5 1.0 6 1.0
 4
 5 7 1.0 8 1.0 9 1.0
 6 10 2.0 25 1.0
 7
 8
 9 11 2.0 12 1.0
 10
 11 13 1.0 14 1.0
 12 15 1.5 16 1.5
 13
 14 15 1.0 17 1.0
 15 18 1.5
 16 19 1.5 20 1.0
 17
 18 21 1.0 22 1.5
 19 22 1.5 23 1.0
 20
 21
 22 24 1.0
 23
 24
 25
 26

