%chk=D:\soft\g16w\aminoacids\tyr.chk
# hf/3-21g geom=connectivity

Title Card Required

0 1
 N                 -5.94549078    0.37476277    3.38419108
 H                 -4.94593078    0.34509677    3.38419108
 C                 -6.63244478    1.65057477    3.38419108
 H                 -7.25727778    1.72737777    2.49436808
 C                 -7.51906778    1.79669677    4.61633208
 C                 -5.64196578    2.80618577    3.38419108
 H                 -8.26330278    1.00037477    4.62556408
 H                 -6.90629478    1.73104877    5.51538708
 C                 -8.21574278    3.13586077    4.57913508
 O                 -4.40503978    2.57470077    3.38419108
 C                 -9.08859878    3.49974677    5.61146608
 C                 -7.98880178    4.01358677    3.51231608
 H                 -9.26528278    2.81637677    6.44206108
 C                 -9.73452278    4.74135677    5.57697808
 C                 -8.63473178    5.25519377    3.47782808
 H                 -7.30921978    3.73027577    2.70857208
 H                -10.41410378    5.02466777    6.38072208
 C                 -9.50758878    5.61907977    4.51015908
 H                 -8.45804778    5.93856477    2.64723308
 O                -10.13505678    6.82521477    4.47665708
 H                -10.70891078    6.97062377    5.23240008
 ?s                -6.05717278    3.98521277    3.38419108
 ?s                -6.60233078   -0.68875123    3.38419108

 1 2 1.0 3 1.0 23 1.0
 2
 3 4 1.0 5 1.0 6 1.0
 4
 5 7 1.0 8 1.0 9 1.0
 6 10 2.0 22 1.0
 7
 8
 9 11 1.5 12 1.5
 10
 11 13 1.0 14 1.5
 12 15 1.5 16 1.0
 13
 14 17 1.0 18 1.5
 15 18 1.5 19 1.0
 16
 17
 18 20 1.0
 19
 20 21 1.0
 21
 22
 23

