%chk=D:\soft\g16w\aminoacids\val.chk
# hf/3-21g geom=connectivity

Title Card Required

0 1
 N                 -7.35926460    3.36042580    4.20905079
 H                 -6.35970460    3.33075980    4.20905079
 C                 -8.04621860    4.63623780    4.20905079
 H                 -8.67105160    4.71304080    3.31922779
 C                 -8.93284160    4.78235980    5.44119179
 C                 -7.05573960    5.79184880    4.20905079
 H                 -9.67707660    3.98603780    5.45042379
 C                 -8.07487060    4.69041380    6.69859279
 C                 -9.63643660    6.13482680    5.40362479
 O                 -5.81881360    5.56036380    4.20905079
 H                 -7.33064560    5.48675680    6.69029579
 H                 -8.70812960    4.79479980    7.57960679
 H                 -7.57172460    3.72387380    6.72588379
 H                -10.24980660    6.20103880    4.50501879
 H                -10.27031660    6.23978580    6.28412479
 H                 -8.89279860    6.93171180    5.39484179
 ?s                -8.01610460    2.29691180    4.20905079
 ?s                -7.47094060    6.97087780    4.20905079

 1 2 1.0 3 1.0 17 1.0
 2
 3 4 1.0 5 1.0 6 1.0
 4
 5 7 1.0 8 1.0 9 1.0
 6 10 2.0 18 1.0
 7
 8 11 1.0 12 1.0 13 1.0
 9 14 1.0 15 1.0 16 1.0
 10
 11
 12
 13
 14
 15
 16
 17
 18

