%chk=D:\Gaussian 09w\Arg.chk
# hf/3-21g geom=connectivity

Title Card Required

0 2
 N                 -1.16750623   -2.13188383   -0.01131012
 H                 -0.16794623   -2.16154983   -0.01131012
 C                 -1.85446023   -0.85607183   -0.01131012
 H                 -2.47929323   -0.77926883   -0.90113312
 C                 -2.74108323   -0.70994983    1.22083088
 C                 -0.86398123    0.29953917   -0.01131012
 H                 -3.48531823   -1.50627183    1.23006288
 H                 -2.12831023   -0.77559783    2.11988588
 C                 -3.44467823    0.64251717    1.18326388
 O                  0.37294477    0.06805417   -0.01131012
 H                 -2.70104023    1.43940217    1.17448088
 H                 -4.05804823    0.70872917    0.28465788
 C                 -4.33130223    0.78864017    2.41540588
 H                 -5.07553723   -0.00768183    2.42463688
 H                 -3.71852823    0.72299117    3.31445988
 N                 -5.03181423    2.09235717    2.41316888
 H                 -4.86842923    2.72592117    1.64375288
 C                 -5.86665023    2.46775517    3.37806488
 N                 -6.13226223    1.68874417    4.42280988
 N                 -6.44264223    3.66217917    3.27567488
 H                 -5.69316323    0.78226217    4.49752288
 H                 -6.77184523    2.00722817    5.13667388
 H                 -6.23876923    4.25129117    2.48101588
 H                 -7.08127523    3.97462217    3.99304988
 O                 -1.33897098    1.64834780   -0.01131012
 H                 -0.64690097    2.23180805   -0.33101817
 H                 -1.69297809   -2.98269481   -0.01131012

 1 2 1.0 3 1.0 27 1.0
 2
 3 4 1.0 5 1.0 6 1.0
 4
 5 7 1.0 8 1.0 9 1.0
 6 10 2.0 25 1.0
 7
 8
 9 11 1.0 12 1.0 13 1.0
 10
 11
 12
 13 14 1.0 15 1.0 16 1.0
 14
 15
 16 17 1.0 18 1.5
 17
 18 19 1.5 20 1.5
 19 21 1.0 22 1.0
 20 23 1.0 24 1.0
 21
 22
 23
 24
 25 26 1.0
 26
 27

