%nprocshared=4
%chk=D:\Gaussian 09w\CO2_F.chk
# opt freq b3lyp/cc-pvqz geom=connectivity

Title Card Required

0 1
 C                 -1.05747131   -0.10344827    0.00000000
 O                 -2.31587131   -0.10344827    0.00000000
 O                  0.20092869   -0.10344827    0.00000000

 1 2 2.0 3 2.0
 2
 3

