%chk=D:\Gaussian 09w\flat.chk
# hf/3-21g geom=connectivity

Title Card Required

0 1
 C                 -0.69074289    0.18455285   -0.02472392
 H                 -1.08822929   -0.29877587    0.84320344
 H                 -0.91125584   -0.40198284   -0.89204734
 C                 -1.38812489    1.39252885   -0.02540592
 H                 -2.00570422    1.45692312    0.84600050
 H                 -2.00607513    1.32793125   -0.89653430
 C                 -0.69052389    2.60073485   -0.02640192
 H                 -0.96683962    3.15559473    0.84576787
 H                 -1.03178028    3.11598543   -0.89987826
 C                  0.70430111    2.60081285   -0.02592292
 H                  1.03338030    3.12468265    0.84709902
 H                  0.99258376    3.14717543   -0.89958249
 C                  1.40195511    1.39230385   -0.02472392
 H                  2.02050776    1.46560794   -0.89473492
 H                  2.01893143    1.31832888    0.84634893
 C                  0.70441711    0.18455285   -0.02472392
 H                  1.06125569   -0.32274673   -0.89662607
 H                  0.96556066   -0.37802210    0.84717830

 1 2 1.0 3 1.0 4 1.0 16 1.0
 2
 3
 4 5 1.0 6 1.0 7 1.0
 5
 6
 7 8 1.0 9 1.0 10 1.0
 8
 9
 10 11 1.0 12 1.0 13 1.0
 11
 12
 13 14 1.0 15 1.0 16 1.0
 14
 15
 16 17 1.0 18 1.0
 17
 18

