%chk=D:\Gaussian 09w\Gly.chk
# hf/3-21g geom=connectivity

Title Card Required

0 1
 C                  0.64367819    1.87356319    0.00000000
 O                  1.27071862    2.96461354    0.00000000
 O                  1.35622413    0.63373325    0.00000000
 H                  0.73130950   -0.09502028    0.00000000
 C                 -0.89632181    1.87356319    0.00000000
 H                 -1.25298816    1.36932967   -0.87374921
 H                 -1.25298816    1.36899117    0.87355377
 N                 -1.38632207    3.25949236    0.00026850
 H                 -1.94186914    3.41688742   -0.81618374
 H                 -1.94185028    3.41649208    0.81680968

 1 2 2.0 3 1.0 5 1.0
 2
 3 4 1.0
 4
 5 6 1.0 7 1.0 8 1.0
 6
 7
 8 9 1.0 10 1.0
 9
 10

