%chk=D:\Gaussian 09w\HCHO.chk
# opt freq b3lyp/6-311+g(d,3p) geom=connectivity

Title Card Required

0 1
 O                  0.91287245   -0.50749610    0.35078537
 C                 -0.34552755   -0.50749610    0.35078537
 H                 -0.88419376   -1.43145371    0.31852006
 H                 -0.87869130    0.41964369    0.38316181

 1 2 2.0
 2 3 1.0 4 1.0
 3
 4

