%chk=D:\soft\uusrdazoye\scr\mm\test2.chk
# hf/3-21g geom=connectivity

Title Card Required

0 1
 N                 -2.53516344   -0.84008592    0.00000000
 H                 -1.53560344   -0.86975192    0.00000000
 C                 -3.22211744    0.43572608    0.00000000
 H                 -3.84695044    0.51252908   -0.88982300
 C                 -4.10874044    0.58184808    1.23214100
 C                 -2.23163844    1.59133708    0.00000000
 H                 -4.85297544   -0.21447392    1.24137300
 H                 -3.49596744    0.51620008    2.13119600
 S                 -5.03176744    2.13304008    1.36603300
 O                 -0.99471244    1.35985208    0.00000000
 H                 -5.62928144    1.84031008    2.51763400
 O                 -2.70662819    2.94014571    0.00000000
 H                 -1.99079964    3.53197265   -0.24275576
 H                 -3.06063530   -1.69089690    0.00000000

 1 2 1.0 3 1.0 14 1.0
 2
 3 4 1.0 5 1.0 6 1.0
 4
 5 7 1.0 8 1.0 9 1.0
 6 10 2.0 12 1.0
 7
 8
 9 11 1.0
 10
 11
 12 13 1.0
 13
 14

