%chk=D:\soft\uusrdazoye\scr\mm\test1.chk
# hf/3-21g geom=connectivity

Title Card Required

0 1
 C                 -2.62714481    0.50027975    0.08551912
 C                 -1.10091181    0.50027975    0.08551912
 C                 -1.97141781    2.90841075    0.08551912
 C                 -3.14488281    1.93252175    0.08630012
 H                 -3.00046881   -0.04740425    0.98810612
 H                 -3.78258981    2.11474375   -0.81598388
 H                 -3.78099381    2.11433075    0.98979712
 C                 -0.60241481    1.23218475   -1.15754488
 H                  0.51730519    1.22521475   -1.17093088
 H                 -0.95291181    0.69273175   -2.07413188
 C                 -1.12077881    2.66419775   -1.15792688
 H                 -0.26502081    3.38631075   -1.17259488
 H                 -1.73608281    2.85352375   -2.07419888
 H                 -2.35250581    3.96266575    0.08555112
 H                 -0.71983581   -0.55397125    0.08552112
 C                 -1.11948681    2.66466675    1.32816712
 H                 -0.26309381    3.38607975    1.34102312
 H                 -1.73344881    2.85542675    2.24503712
 C                 -0.60229581    1.23222475    1.32849412
 H                  0.51741419    1.22427375    1.34240912
 H                 -0.95361881    0.69338675    2.24513112
 C                 -3.14050313   -0.25154845   -1.15658297
 C                 -3.03988501   -1.77906776   -0.97374297
 C                 -4.64424867   -0.00829189   -1.38773066
 H                 -2.54178776    0.07754429   -2.03888342
 C                 -4.13446015   -2.27396776   -1.95423783
 C                 -3.67956370   -2.11819490    0.38723797
 H                 -2.02621220   -2.19462544   -1.12225594
 C                 -5.25963439   -1.41994973   -1.31467313
 H                 -5.07622385    0.66623040   -0.61212788
 H                 -4.82625672    0.44680752   -2.39024673
 H                 -4.32277621   -3.36663503   -1.87930716
 H                 -3.92765005   -1.99861644   -3.01083201
 H                 -3.48373625   -3.18305426    0.65751511
 H                 -3.27758172   -1.46983837    1.20038619
 C                 -5.18336680   -1.87475235    0.15638573
 H                 -6.26178306   -1.50939957   -1.77292202
 H                 -5.76812999   -2.81318766    0.30695203
 H                 -5.58495049   -1.09617886    0.84610831

 1 2 1.0 4 1.0 5 1.0 22 1.0
 2 8 1.0 15 1.0 19 1.0
 3 4 1.0 11 1.0 14 1.0 16 1.0
 4 6 1.0 7 1.0
 5
 6
 7
 8 9 1.0 10 1.0 11 1.0
 9
 10
 11 12 1.0 13 1.0
 12
 13
 14
 15
 16 17 1.0 18 1.0 19 1.0
 17
 18
 19 20 1.0 21 1.0
 20
 21
 22 23 1.0 24 1.0 25 1.0
 23 26 1.0 27 1.0 28 1.0
 24 29 1.0 30 1.0 31 1.0
 25
 26 29 1.0 32 1.0 33 1.0
 27 34 1.0 35 1.0 36 1.0
 28
 29 36 1.0 37 1.0
 30
 31
 32
 33
 34
 35
 36 38 1.0 39 1.0
 37
 38
 39

