%chk=D:\Gaussian 09w\76.chk
# hf/3-21g geom=connectivity

Title Card Required

0 2
 P                 -5.39829498   -0.83752884   -2.36404013
 O                 -5.58104698   -2.17823784   -1.50717013
 O                 -5.42754598   -1.19360484   -3.92528213
 O                 -3.99688498   -0.15764884   -1.99823813
 C                 -2.89997198   -0.99598284   -1.58887613
 H                 -2.66205598   -1.69933084   -2.38687213
 H                 -3.17868098   -1.54704984   -0.69068513
 C                 -1.67667298   -0.14376584   -1.29279213
 H                 -0.98600798   -0.70489984   -0.66334013
 O                 -0.94262798    0.07610316   -2.53554513
 C                 -1.14231098    1.40659616   -2.98976313
 H                 -0.18239798    1.91998416   -3.04543213
 N                 -1.60419598    1.38686916   -4.43775213
 C                 -2.84281698    1.18473216   -4.98716613
 H                 -3.69357298    1.00038416   -4.34792313
 N                 -2.87078698    1.30084316   -6.28166913
 C                 -1.55685798    1.60204116   -6.62074013
 C                 -0.93065198    1.84597916   -7.84889313
 N                 -1.57394598    1.82476416   -9.02419013
 H                 -1.06927298    2.00870016   -9.87951113
 H                 -2.56348898    1.62483716   -9.05472913
 N                  0.38228202    2.11328116   -7.83003313
 C                  1.01541802    2.13296116   -6.66056713
 H                  2.07347402    2.34625416   -6.62284913
 N                  0.53591102    1.92066916   -5.44920213
 C                 -0.78666098    1.65411916   -5.49703313
 C                 -1.95855298    1.26358816   -0.76288613
 H                 -2.89148998    1.26005416   -0.19922413
 C                 -2.14043398    2.07842516   -2.04501713
 H                 -3.13855798    2.51619316   -2.05940013
 H                 -1.39518598    2.87308816   -2.07989313
 O                 -0.92157998    1.87788016   -0.01206413
 H                 -0.21821398    2.15400538   -0.60420527
 O                 -6.66970172    0.24747561   -2.00294426
 H                 -7.47951785   -0.24604546   -1.85383093

 1 2 1.5 3 1.5 4 1.5 34 1.0
 2
 3
 4 5 1.0
 5 6 1.0 7 1.0 8 1.0
 6
 7
 8 9 1.0 10 1.0 27 1.0
 9
 10 11 1.0
 11 12 1.0 13 1.0 29 1.0
 12
 13 14 1.5 26 1.5
 14 15 1.0 16 2.0
 15
 16 17 1.0
 17 18 1.5 26 2.0
 18 19 1.5 22 1.5
 19 20 1.0 21 1.0
 20
 21
 22 23 1.5
 23 24 1.0 25 2.0
 24
 25 26 1.5
 26
 27 28 1.0 29 1.0 32 1.0
 28
 29 30 1.0 31 1.0
 30
 31
 32 33 1.0
 33
 34 35 1.0
 35

